Hello World!!!
New line...

nova linha através do Linux ubuntu....
